<?xml version="1.0" encoding="UTF-8"?>

<!-- generated on 2025-11-29T06:14:42.182072+01:00 by Eclipse SUMO duarouter 1.25.0
<duarouterConfiguration xmlns:xsi="http://www.w3.org/2001/XMLSchema-instance" xsi:noNamespaceSchemaLocation="http://sumo.dlr.de/xsd/duarouterConfiguration.xsd">

    <input>
        <net-file value="network/sumo/heilbronn.net.xml"/>
        <additional-files value="intermediate/bus/sumo_stops_filtered.add.xml"/>
        <route-files value="intermediate/bus/trips_connected.rou.xml"/>
    </input>

    <output>
        <output-file value="intermediate/bus/sumo_routes_connected.rou.xml"/>
    </output>

    <processing>
        <remove-loops value="true"/>
        <repair value="true"/>
    </processing>

    <report>
        <ignore-errors value="true"/>
        <no-step-log value="true"/>
    </report>

</duarouterConfiguration>
-->

<routes xmlns:xsi="http://www.w3.org/2001/XMLSchema-instance" xsi:noNamespaceSchemaLocation="http://sumo.dlr.de/xsd/routes_file.xsd">
    <vType id="bus_standard" length="12.00" vClass="ignoring" accel="2.0" decel="4.0"/>
    <vehicle id="kvv-22-304E-1-1-108-R-47-Special#586-3-285" type="bus_standard" depart="14100.00">
        <route edges="-1340342315 -142415276#1 -142415276#0 142415276#0 142415276#1 1340342315 1413022414 286359565 148824817#0 148824817#1 235442940 235442941#0 235442941#1 56964181 235442939#0 235442939#1 33526992#0 33526992#1 1413072729 1413072730#0 1413072730#1 235442943 295479772 295479770#0 295479770#1 295479770#2 24525923#0 24525923#1 24525923#2 65017552#0 65017552#1 65017552#2 109020905#0 109020905#1 109020905#2 222324430#0 222324430#1 222324430#2 1413072727 235442943 295479772 24525959 67667646#0 67667646#1 67667646#2 4225309 286686799#0 286686799#1 -156649615#1 -156649615#0 1450101877 286359615#0 286359615#1 286359615#2 286359615#3 286359615#4 606494165#0 606494165#1 606494165#2 606494165#3 286359616 286359559 286359560#0 286359560#1 286359562#0 1333507937#1 107218710#0 107218710#1 106525745#5 106525745#6 106525745#7 106525745#0 106525745#1 106525745#2 715288048 106525769#0 106525769#1 286359741#3 286359741#4 101725709#0 101725709#1 101725709#2 267040059#0 267040059#1 267040059#2 267040059#3 267040059#4 267040059#5 267040059#6 267040059#7 -164208990 -286359617 -1263240996#3 -1263240996#2 -1263240996#1 -1263240996#0 -218002367#7 -218002367#6 -218002367#5 -218002367#4 -218002367#3 -218002367#2 -218002367#1 -218002367#0 -218002370#2 -218002370#1 -218002370#0 -106509789#2 -106509789#1 -106509789#0 106509785 216752289#0 216752289#1 216752321 243492745 216752308 216752314 216752297#0 263700026#0 263700026#1 1052540461"/>
        <stop busStop="de:08121:1114:3:3" duration="180.00"/>
        <stop busStop="de:08121:137:3:1" duration="0.00"/>
        <stop busStop="de:08121:55:2:2" duration="60.00"/>
        <stop busStop="de:08121:1123:91:2" duration="60.00"/>
        <stop busStop="de:08121:3032:1:1" duration="0.00"/>
    </vehicle>
    <vehicle id="hnv-30-104F-1-1-2-R-0-Special#24-1-1" type="bus_standard" depart="15000.00">
        <route edges="254760066#8 153410088#0 153410088#1 -723183428 -1260682200 -1214971411#6 -1214971411#5 -1214971411#4 -1214971411#3 -1214971411#2 -1214971411#1 -1214971411#0 -1214971412 -1260680174#1 -1260680174#0 -129831585#1 -129831585#0 -1260679996#2 1260679996#2 129831585#0 129831585#1 1260680174#0 1260680174#1 -1260680174#1 -1260680174#0 -129831585#1 -129831585#0 -1260679996#2 -1260679996#1 -1260679996#0 -1260679953#4 -1260679953#3 -1260679953#2 -1260679953#1 -1260679953#0 -1260679570#1 -1260679570#0 -153410084#12 -153410084#11 -153410084#10 -153410084#9 -153410084#8 -153410084#7 -153410084#6 -153410084#5 -153410084#4 -153410084#3 -153410084#2 -153410084#1 -153410084#0 -142411063 61483608#0 61483608#1 61483608#2 61483608#3 88337272#0 88337272#1 88337272#2 88337272#3 88337272#4 88337272#5 88337272#6 88337272#7 243492738#0 243492738#1 243492738#2 4225296#0 4225296#1 286359622#0 286359622#1 286359629#0 286359629#1 286359629#2 -286359628#2 -286359628#1 -286359628#0 -88543983#9 -88543983#8 -88543983#7 -88543983#6 -88543983#5 88543983#5 88543983#6 88543983#7 88543983#8 88543983#9 286359628#0 286359628#1 286359628#2 -286359628#2 -286359628#1 -286359628#0 -88543983#9 -88543983#8 -88543983#7 -88543983#6 -88543983#5 -88543983#4 -88543983#3 -88543983#2 4399144#0 4399144#1 4399144#2 4399144#3 4399144#4 -290856100#0 -153246899#3 -153246899#2 153246899#2 153246899#3 -153246899#3 -153246899#2 -153246899#1 -153246899#0 61482901#0 61482901#1 288893421#0 288893421#1 288893421#2 23084544 840241105#0 840241105#1 840241107#0 840241107#1 142411056#0 142411056#1 272430166#3 359371886#4 723236930#6 723236930#7 723236930#8 723236930#9 723236930#10 723236930#11 723236930#12 723236930#13 723236930#14 723236930#15 267040060#3 723236930#17 723236930#18 723236930#19 956603102#1 956603102#2 -286359613 -606494165#3 -606494165#2 -606494165#1 -606494165#0 -286359615#4 -286359615#3 -286359615#2 -286359615#1 -286359615#0 -1450101877 -303301712#1 -303301712#0 67036468 286686798 67036475#0 67036475#1 67667647#0 67667647#1 24525923#0 24525923#1 24525923#2 133531006 286686742#0 286686742#1 235442942#0 235442942#1 235442942#2 -235442939#1 -235442939#0 -56964181 -235442941#1 -235442941#0 -235442940 -148824817#1 -148824817#0 -286359565 -1413022414 -1340342315"/>
        <stop busStop="de:08121:62:0:1" duration="0.00"/>
        <stop busStop="de:08121:193:0:1" duration="0.00"/>
        <stop busStop="de:08121:153:0:1" duration="0.00"/>
        <stop busStop="de:08121:48:0:1" duration="0.00"/>
        <stop busStop="de:08121:53:0:1" duration="0.00"/>
        <stop busStop="de:08121:138:0:1" duration="0.00"/>
        <stop busStop="de:08121:76:0:1" duration="0.00"/>
        <stop busStop="de:08121:24:2:4" duration="0.00"/>
        <stop busStop="de:08121:55:1:0" duration="0.00"/>
        <stop busStop="de:08121:137:1:0" duration="0.00"/>
        <stop busStop="de:08121:1114:2:0" duration="0.00"/>
    </vehicle>
    <vehicle id="hnv-31-642-1-8-14-R-13-Special#327-50-297" type="bus_standard" depart="15900.00">
        <route edges="85851313#3 -286359666 -286359613 -606494165#3 -606494165#2 -606494165#1 -606494165#0 -286359615#4 -286359615#3 -286359615#2 -286359615#1 -286359615#0 -1450101877 -303301712#1 -303301712#0 67036468 286686798 67036475#0 67036475#1 67667647#0 67667647#1 24525923#0 24525923#1"/>
        <stop busStop="de:08121:4479:0:2" duration="0.00"/>
        <stop busStop="de:08121:55:1:0" duration="0.00"/>
        <stop busStop="de:08121:137:1:0" duration="0.00"/>
    </vehicle>
    <vehicle id="kvv-22-304E-1-1-109-R-46-Special#508-23-60" type="bus_standard" depart="15900.00">
        <route edges="-1340342315 -142415276#1 -142415276#0 142415276#0 142415276#1 1340342315 1413022414 286359565 148824817#0 148824817#1 235442940 235442941#0 235442941#1 56964181 235442939#0 235442939#1 33526992#0 33526992#1 1413072729 1413072730#0 1413072730#1 235442943 295479772 295479770#0 295479770#1 295479770#2 24525923#0 24525923#1 24525923#2 65017552#0 65017552#1 65017552#2 109020905#0 109020905#1 109020905#2 222324430#0 222324430#1 222324430#2 1413072727 235442943 295479772 24525959 67667646#0 67667646#1 67667646#2 4225309 286686799#0 286686799#1 -156649615#1 -156649615#0 1450101877 286359615#0 286359615#1 286359615#2 286359615#3 286359615#4 606494165#0 606494165#1 606494165#2 606494165#3 286359616 286359559 286359560#0 286359560#1 286359562#0 1333507937#1 107218710#0 107218710#1 106525745#5 106525745#6 106525745#7 106525745#0 106525745#1 106525745#2 715288048 106525769#0 106525769#1 286359741#3 286359741#4 101725709#0 101725709#1 101725709#2 267040059#0 267040059#1 267040059#2 267040059#3 267040059#4 267040059#5 267040059#6 267040059#7 -164208990 -286359617 -1263240996#3 -1263240996#2 -1263240996#1 -1263240996#0 -218002367#7 -218002367#6 -218002367#5 -218002367#4 -218002367#3 -218002367#2 -218002367#1 -218002367#0 -218002370#2 -218002370#1 -218002370#0 -106509789#2 -106509789#1 -106509789#0 106509785 216752289#0 216752289#1 216752321 243492745 216752308 216752314 216752297#0 263700026#0 263700026#1 1052540461"/>
        <stop busStop="de:08121:1114:3:3" duration="0.00"/>
        <stop busStop="de:08121:137:3:1" duration="0.00"/>
        <stop busStop="de:08121:55:2:2" duration="60.00"/>
        <stop busStop="de:08121:1123:91:2" duration="60.00"/>
        <stop busStop="de:08121:3032:1:1" duration="0.00"/>
    </vehicle>
    <vehicle id="kvv-22-304E-1-1-3-H-42-Special#817-1-1429" type="bus_standard" depart="15960.00">
        <route edges="1052540461 292685595#0 292685595#1 292685595#2 216738419 -106525769#2 286359741#3 286359741#4"/>
        <stop busStop="de:08121:3032:2:2" duration="0.00"/>
        <stop busStop="de:08121:1123:91:1" duration="0.00"/>
    </vehicle>
    <vehicle id="kvv-22-342E-1-7-18-H-25-Special#864-482-197" type="bus_standard" depart="16020.00">
        <route edges="-1340342315 -142415276#1 -142415276#0 142415276#0 142415276#1 1340342315 1413022414 286359565 148824817#0 148824817#1 235442940 235442941#0 235442941#1 56964181 235442939#0 235442939#1 33526992#0 33526992#1 1413072729 1413072730#0 1413072730#1 235442943 295479772 295479770#0 295479770#1 295479770#2 24525923#0 24525923#1 24525923#2 65017552#0 65017552#1 65017552#2 109020905#0 109020905#1 109020905#2 222324430#0 222324430#1 222324430#2 1413072727 235442943 295479772 24525959 67667646#0 67667646#1 67667646#2 4225309 286686799#0 286686799#1 -156649615#1 -156649615#0 1450101877 286359615#0 286359615#1 286359615#2 286359615#3 286359615#4 606494165#0 606494165#1 606494165#2 606494165#3 286359613 286359666 267040058#0 267040058#1 286359661#0 286359661#1 267040059#1 267040059#2 267040059#3 267040059#4 267040059#5 267040059#6 267040059#7 267040059#8 267040059#9 267040059#10 267040059#11 267040059#12 267040059#13 267040059#14 267040059#15 267040059#16 267040059#17 267040059#18 267040059#19 267040059#20 267040059#21 267040059#22 723236928 267040033 23084543#0 23084543#1 23084543#2 840241110 840241104 67037846 840241108#0 840241108#1 840241108#2 286359697#0 286359697#1 1265985004#0 1265985004#1 1265985004#2 42800272#0 42800272#1 42800272#2 42800272#3 42800272#4 42800272#5 42800272#6 286359624 286359626#0 286359626#1 83827164 286359623#0 286359623#1 286359623#2 286359627#0 286359627#1 286359627#2 286359627#3 286359627#4 5052773#2 171689727#0 171689727#1 220652430#0 220652430#1 220652430#2 1408849024#0 1408849024#1 286686734#0 -286686834 -286686830 -171689724#0 220652431 220652433 220652432#0 220652432#1 220652432#2 267040037 -286686804#5 -286686804#4 -286686804#3 -286686804#2 -286686804#1 -286686804#0 286686803#0 286686803#1 286686803#2 36832975#4 1147845938#0 1147845938#1 1147845938#2 1147845938#3 1147845938#4 256269642#0 256269642#1 256269642#2 256269642#3 256269642#4 256269642#5 256269642#6 256269642#7 256269642#8 286359563#0 286359563#1 256268695#0 256268695#1 256268695#2 256268695#3 256268695#4 256268695#5 256268695#6 256268695#7 256268695#8 256268695#9 256268695#10 -256268697#10 -256268697#9 -256268697#8 -256268697#7 256268696#0 256268696#1 256268696#2"/>
        <stop busStop="de:08121:1114:3:2" duration="0.00"/>
        <stop busStop="de:08121:137:3:1" duration="0.00"/>
        <stop busStop="de:08121:55:2:2" duration="60.00"/>
        <stop busStop="de:08121:23:90:1" duration="60.00"/>
        <stop busStop="de:08121:31002:1:1" duration="0.00"/>
        <stop busStop="de:08121:31001:1:1" duration="60.00"/>
        <stop busStop="de:08121:31003:1:2" duration="60.00"/>
        <stop busStop="de:08121:31004:1:1" duration="60.00"/>
    </vehicle>
    <vehicle id="kvv-22-342E-1-7-9-R-23-Special#942-2-13" type="bus_standard" depart="16800.00">
        <route edges="256268695#9 256268695#10 -256268697#10 -256268697#9 -256268697#8 -256268697#7 256268696#0 256268696#1 256268696#2 256268696#3 256268696#4 256268696#5 256268696#6 256268696#7 256268696#8 286686740#0 286686740#1 286686738 286686739#0 286686739#1 286686737 286686736#0 286686736#1 286686736#2 286686736#3 286686736#4 286686736#5 286686736#6 286686736#7 286686736#8 286686736#9 286686736#10 1147845163 36832975#6 36832975#7 36832975#8 36832975#9 36832975#0 36832975#1 36832975#2 36832975#3 36832975#4 1147845938#0 1147845938#1 1147845938#2 1147845938#3 1147845938#4 256269642#0 256269642#1 256269642#2 256269642#3 256269642#4 256269642#5 286686860#0 286686860#1 286686860#2 286686736#3 286686736#4 286686736#5 286686736#6 286686736#7 286686736#8 286686736#9 286686736#10 1147845163 36832975#6 36832975#7 36832975#8 36832975#9 36832975#0 -286686888#1 -286686888#0 -956505146 -163842956 -723238920 -81083900#1 -81083900#0 -42805404#1 -42805404#0 512617469#0 512617469#1 512617469#2 512617471 42805409#0 42805409#1 142234373#0 142234373#1 142234381#0 142234381#1 142234381#2 148821228#0 148821228#1 148821228#2 165419181#0 165419181#1 165419181#2 165419181#3 288771270 288771272 288893416#0 288893416#1 288893416#2 288893416#3 42785140#0 42785140#1 42785140#2 42785140#3 42785140#4 1265985004#2 42800272#0 42800272#1 42800272#2 42800272#3 42800272#4 42800272#5 42800272#6 286359624 267040042#0 267040042#1 286359621#0 286359621#1 286359621#2 286359621#3 286359621#4 286359621#5 286359621#6 286686802#0 286686802#1 83738619#0 83738619#1 286686805#0 286686805#1 286686805#2 286686805#3 286686805#4 286686805#5 286686805#6 366625732 366625733#0 366625733#1 288771275 288771272 288893416#0 288893416#1 288893416#2 288893416#3 42785140#0 42785140#1 42785140#2 42785140#3 42785140#4 1265985004#2 -308255962#2 -308255962#1 -308255962#0 308255961#1 -1392025438 840241108#2 286359697#0 286359697#1 42785141#0 42785141#1 42785141#2 42785141#3 287381342#0 287381342#1 288893412#0 288893412#1 288771275 288771272 288893416#0 288893416#1 288893416#2 288893416#3 42785367#0 42785367#1 366625734#0 366625734#1 42785139#0 42785139#1 42785139#2 286359639 723236930#0 723236930#1 723236930#2 723236930#3 723236930#4 723236930#5 723236930#6 723236930#7 723236930#8 723236930#9 723236930#10 723236930#11 723236930#12 723236930#13 723236930#14 723236930#15 723236930#16 267040060#4 723236930#18 723236930#19 956603102#1 956603102#2 -286359613 -606494165#3 -606494165#2 -606494165#1 -606494165#0 -286359615#4 -286359615#3 -286359615#2 -286359615#1 -286359615#0 -1450101877 -303301712#1 -303301712#0 67036468 286686798 67036475#0 67036475#1 67667647#0 67667647#1 24525923#0 24525923#1 24525923#2 133531006 286686742#0 286686742#1 235442942#0 235442942#1 235442942#2 -235442939#1 -235442939#0 -56964181 -235442941#1 -235442941#0 -235442940 -148824817#1 -148824817#0 -286359565 -1413022414 -1340342315"/>
        <stop busStop="de:08121:31004:1:2" duration="0.00"/>
        <stop busStop="de:08121:31003:1:1" duration="0.00"/>
        <stop busStop="de:08121:31001:1:2" duration="0.00"/>
        <stop busStop="de:08121:31002:1:2" duration="60.00"/>
        <stop busStop="de:08121:24:90:1" duration="60.00"/>
        <stop busStop="de:08121:55:3:1" duration="60.00"/>
        <stop busStop="de:08121:137:2:2" duration="0.00"/>
        <stop busStop="de:08121:1114:3:1" duration="0.00"/>
    </vehicle>
    <vehicle id="kvv-22-304E-1-11-300-H-72-Special#285-1603-1034" type="bus_standard" depart="16920.00">
        <route edges="1052540461 292685595#0 292685595#1 292685595#2 216738419 -106525769#2 286359741#3 286359741#4 101725709#0 101725709#1 101725709#2 267040059#0 267040059#1 267040059#2 267040059#3 267040059#4 286359692#4 -359372051#3 -359372051#2 161095405#1 161095405#2 -286359613 -606494165#3 -606494165#2 -606494165#1 -606494165#0 -286359615#4 -286359615#3 -286359615#2 -286359615#1 -286359615#0 -1450101877 -303301712#1 -303301712#0 67036468 286686798 67036475#0 67036475#1 67667647#0 67667647#1 24525923#0 24525923#1 24525923#2 133531006 286686742#0 286686742#1 235442942#0 235442942#1 235442942#2 -235442939#1 -235442939#0 -56964181 -235442941#1 -235442941#0 -235442940 -148824817#1 -148824817#0 -286359565 -1413022414 -1340342315"/>
        <stop busStop="de:08121:3032:2:2" duration="0.00"/>
        <stop busStop="de:08121:1123:91:1" duration="60.00"/>
        <stop busStop="de:08121:55:3:1" duration="60.00"/>
        <stop busStop="de:08121:137:2:2" duration="0.00"/>
        <stop busStop="de:08121:1114:3:1" duration="120.00"/>
    </vehicle>
    <vehicle id="hnv-31-662-1-1-8-H-1-Special#297-20-78" type="bus_standard" depart="17100.00">
        <route edges="85851313#3 -286359666 -286359613 -606494165#3 -606494165#2 -606494165#1 -606494165#0 -286359615#4 -286359615#3 -286359615#2 -286359615#1 -286359615#0 -1450101877 -303301712#1 -303301712#0 67036468 286686798 67036475#0 67036475#1 67667647#0 67667647#1 24525923#0 24525923#1"/>
        <stop busStop="de:08121:4479:0:2" duration="0.00"/>
        <stop busStop="de:08121:55:1:0" duration="0.00"/>
        <stop busStop="de:08121:137:1:0" duration="0.00"/>
    </vehicle>
    <vehicle id="kvv-22-304E-1-1-111-R-43-Special#672-46-663" type="bus_standard" depart="17220.00">
        <route edges="-1340342315 -142415276#1 -142415276#0 142415276#0 142415276#1 1340342315 1413022414 286359565 148824817#0 148824817#1 235442940 235442941#0 235442941#1 56964181 235442939#0 235442939#1 33526992#0 33526992#1 1413072729 1413072730#0 1413072730#1 235442943 295479772 295479770#0 295479770#1 295479770#2 24525923#0 24525923#1 24525923#2 65017552#0 65017552#1 65017552#2 109020905#0 109020905#1 109020905#2 222324430#0 222324430#1 222324430#2 1413072727 235442943 295479772 24525959 67667646#0 67667646#1 67667646#2 4225309 286686799#0 286686799#1 -156649615#1 -156649615#0 1450101877 286359615#0 286359615#1 286359615#2 286359615#3 286359615#4 606494165#0 606494165#1 606494165#2 606494165#3 286359616 286359559 286359560#0 286359560#1 286359562#0 1333507937#1 107218710#0 107218710#1 106525745#5 106525745#6 106525745#7 106525745#0 106525745#1 106525745#2 715288048 106525769#0 106525769#1 286359741#3 286359741#4 101725709#0 101725709#1 101725709#2 267040059#0 267040059#1 267040059#2 267040059#3 267040059#4 267040059#5 267040059#6 267040059#7 -164208990 -286359617 -1263240996#3 -1263240996#2 -1263240996#1 -1263240996#0 -218002367#7 -218002367#6 -218002367#5 -218002367#4 -218002367#3 -218002367#2 -218002367#1 -218002367#0 -218002370#2 -218002370#1 -218002370#0 -106509789#2 -106509789#1 -106509789#0 106509785 216752289#0 216752289#1 216752321 243492745 216752308 216752314 216752297#0 263700026#0 263700026#1 1052540461"/>
        <stop busStop="de:08121:1114:3:2" duration="60.00"/>
        <stop busStop="de:08121:137:3:1" duration="0.00"/>
        <stop busStop="de:08121:55:2:2" duration="60.00"/>
        <stop busStop="de:08121:1123:91:2" duration="60.00"/>
        <stop busStop="de:08121:3032:1:1" duration="0.00"/>
    </vehicle>
    <vehicle id="kvv-22-304E-1-1-112-R-0-Special#515-72-80" type="bus_standard" depart="17340.00">
        <route edges="-1340342315 -142415276#1 -142415276#0 142415276#0 142415276#1 1340342315 1413022414 286359565 148824817#0 148824817#1 235442940 235442941#0 235442941#1 56964181 235442939#0 235442939#1 33526992#0 33526992#1 1413072729 1413072730#0 1413072730#1 235442943 295479772 295479770#0 295479770#1 295479770#2 24525923#0 24525923#1 24525923#2 65017552#0 65017552#1 65017552#2 109020905#0 109020905#1 109020905#2 222324430#0 222324430#1 222324430#2 1413072727 235442943 295479772 24525959 67667646#0 67667646#1 67667646#2 4225309 286686799#0 286686799#1 -156649615#1 -156649615#0 1450101877 286359615#0 286359615#1 286359615#2 286359615#3 286359615#4 606494165#0 606494165#1 606494165#2 606494165#3 286359616 286359559 286359560#0 286359560#1 286359562#0 1333507937#1 107218710#0 107218710#1 106525745#5 106525745#6 106525745#7 106525745#0 106525745#1 106525745#2 715288048 106525769#0 106525769#1 286359741#3 286359741#4 101725709#0 101725709#1 101725709#2 267040059#0 267040059#1 267040059#2 267040059#3 267040059#4 267040059#5 267040059#6 267040059#7 -164208990 -286359617 -1263240996#3 -1263240996#2 -1263240996#1 -1263240996#0 -218002367#7 -218002367#6 -218002367#5 -218002367#4 -218002367#3 -218002367#2 -218002367#1 -218002367#0 -218002370#2 -218002370#1 -218002370#0 -106509789#2 -106509789#1 -106509789#0 106509785 216752289#0 216752289#1 216752321 243492745 216752308 216752314 216752297#0 263700026#0 263700026#1 1052540461"/>
        <stop busStop="de:08121:1114:3:2" duration="0.00"/>
        <stop busStop="de:08121:137:3:1" duration="0.00"/>
        <stop busStop="de:08121:55:2:2" duration="60.00"/>
        <stop busStop="de:08121:1123:91:2" duration="60.00"/>
        <stop busStop="de:08121:3032:1:1" duration="0.00"/>
    </vehicle>
    <vehicle id="hnv-31-651-1-1-1-R-13-Special#352-1-72" type="bus_standard" depart="17400.00">
        <route edges="85851313#3 -286359666 -286359613 -606494165#3 -606494165#2 -606494165#1 -606494165#0 -286359615#4 -286359615#3 -286359615#2 -286359615#1 -286359615#0 -1450101877 -303301712#1 -303301712#0 67036468 286686798 67036475#0 67036475#1 67667647#0 67667647#1 24525923#0 24525923#1"/>
        <stop busStop="de:08121:4479:0:2" duration="0.00"/>
        <stop busStop="de:08121:55:1:0" duration="0.00"/>
        <stop busStop="de:08121:137:1:0" duration="0.00"/>
    </vehicle>
    <vehicle id="hnv-30-031E-1-1-19-R-1-Special#13-33-14" type="bus_standard" depart="17940.00">
        <route edges="253457746#1 253457746#2 253457746#3 323515747#0 323515747#1 323515747#2 323515747#3 323515744 323515745#0 323515745#1 323515745#2 323515745#3 323515745#4 323515745#5 323515745#6 30945945#3 30945945#4 30945945#0 30945644#0 30945644#1 30945644#2 175892850 956505147 288897772#0 288897772#1 288897772#2 -956505146 -163842956 -723238920 -81083900#1 -81083900#0 -42805404#1 -42805404#0 512617469#0 512617469#1 512617469#2 512617471 42805409#0 42805409#1 142234373#0 142234373#1 142234381#0 142234381#1 142234381#2 67486716#0 67486716#1 67486716#2 67486716#3 67486716#4 67486716#5 165419181#0 165419181#1 165419181#2 165419181#3 288771270 288771272 288893416#0 288893416#1 288893416#2 288893416#3 42785367#0 42785367#1 366625734#0 366625734#1 42785139#0 42785139#1 42785139#2 286359639 723236930#0 723236930#1 723236930#2 723236930#3 723236930#4 359371886#4 723236930#6 723236930#7 723236930#8 723236930#9 723236930#10 723236930#11 723236930#12 723236930#13 723236930#14 723236930#15 267040060#3 723236930#17 723236930#18 723236930#19 956603102#1 956603102#2 61420367 286359559 286359560#0 286359560#1 286359562#0 286359562#1 286359562#2 632556850#0"/>
        <stop busStop="de:08121:11:0:1" duration="0.00"/>
        <stop busStop="de:08121:122:0:1" duration="0.00"/>
        <stop busStop="de:08121:212:0:1" duration="0.00"/>
        <stop busStop="de:08121:129:0:1" duration="0.00"/>
        <stop busStop="de:08121:8:0:1" duration="0.00"/>
        <stop busStop="de:08121:141:0:1" duration="0.00"/>
        <stop busStop="de:08121:76:0:1" duration="0.00"/>
        <stop busStop="de:08121:24:2:4" duration="120.00"/>
        <stop busStop="de:08121:3:0:0" duration="0.00"/>
    </vehicle>
    <vehicle id="hnv-31-620-1-1-5-R-0-Special#223-3-47" type="bus_standard" depart="18000.00">
        <route edges="243492729 243492732 243492737#0 243492737#1 243492737#2 800375123#0 800375123#1 800375123#2 1052462677#0 1052462677#1 208061467#0 208061467#1 243492736#0 243492736#1 243492736#2 243492727 243492731 243492740#0 243492740#1 243492740#2 61483608#0 61483608#1 61483608#2 61483608#3 88337272#0 88337272#1 88337272#2 88337272#3 88337272#4 88337272#5 88337272#6 88337272#7 243492738#0 243492738#1 243492738#2 4225296#0 4225296#1 286359622#0 286359622#1 286359629#0 286359629#1 -286359688#2 -286359688#1 -286359688#0 926321008#0 286359625#4 83738619#0 83738619#1 286686805#0 286686805#1 286686805#2 286686805#3 286686805#4 286686805#5 286686805#6 366625732 366625733#0 366625733#1 288771275 288771272 288893416#0 288893416#1 288893416#2 288893416#3 42785367#0 42785367#1 366625734#0 366625734#1 42785139#0 42785139#1 42785139#2 286359639 723236930#0 723236930#1 723236930#2 723236930#3 723236930#4 359371886#4 723236930#6 723236930#7 723236930#8 723236930#9 723236930#10 723236930#11 723236930#12 723236930#13 723236930#14 723236930#15 723236930#16 723236930#17 267040060#5 723236930#19 956603102#1 956603102#2 61420367 286359559 286359560#0 286359560#1 286359562#0 286359562#1 286359562#2 632556850#0 632556850#1 210061969 125174595#0 125174595#1 267040036 65253157 263640636 319098964#0 319098964#1 65253159"/>
        <stop busStop="de:08121:79:0:2" duration="0.00"/>
        <stop busStop="de:08121:75:2:2" duration="0.00"/>
        <stop busStop="de:08121:76:0:1" duration="0.00"/>
        <stop busStop="de:08121:24:2:2" duration="0.00"/>
        <stop busStop="de:08121:81:0:Hp. 6" duration="0.00"/>
    </vehicle>
    <vehicle id="hnv-31-641-1-1-8-R-13-Special#297-30-156" type="bus_standard" depart="18000.00">
        <route edges="85851313#3 -286359666 -286359613 -606494165#3 -606494165#2 -606494165#1 -606494165#0 -286359615#4 -286359615#3 -286359615#2 -286359615#1 -286359615#0 -1450101877 -303301712#1 -303301712#0 67036468 286686798 67036475#0 67036475#1 67667647#0 67667647#1 24525923#0 24525923#1"/>
        <stop busStop="de:08121:4479:0:2" duration="0.00"/>
        <stop busStop="de:08121:55:1:0" duration="0.00"/>
        <stop busStop="de:08121:137:1:0" duration="0.00"/>
    </vehicle>
    <vehicle id="kvv-22-341E-1-7-25-R-37-Special#861-3-197" type="bus_standard" depart="18000.00">
        <route edges="256268695#9 256268695#10 -256268697#10 -256268697#9 -256268697#8 -256268697#7 256268696#0 256268696#1 256268696#2 256268696#3 256268696#4 256268696#5 256268696#6 256268696#7 256268696#8 286686740#0 286686740#1 286686738 286686739#0 286686739#1 286686737 286686736#0 286686736#1 286686736#2 286686736#3 286686736#4 286686736#5 286686736#6 286686736#7 286686736#8 286686736#9 286686736#10 1147845163 36832975#6 36832975#7 36832975#8 36832975#9 36832975#0 36832975#1 36832975#2 36832975#3 36832975#4 1147845938#0 1147845938#1 1147845938#2 1147845938#3 1147845938#4 256269642#0 256269642#1 256269642#2 256269642#3 256269642#4 256269642#5 286686860#0 286686860#1 286686860#2 286686736#3 286686736#4 286686736#5 286686736#6 286686736#7 286686736#8 286686736#9 286686736#10 1147845163 36832975#6 36832975#7 36832975#8 36832975#9 36832975#0 -286686888#1 -286686888#0 -956505146 -163842956 -723238920 -81083900#1 -81083900#0 -42805404#1 -42805404#0 512617469#0 512617469#1 512617469#2 512617471 42805409#0 42805409#1 142234373#0 142234373#1 142234381#0 142234381#1 142234381#2 148821228#0 148821228#1 148821228#2 165419181#0 165419181#1 165419181#2 165419181#3 288771270 288771272 288893416#0 288893416#1 288893416#2 288893416#3 42785140#0 42785140#1 42785140#2 42785140#3 42785140#4 1265985004#2 42800272#0 42800272#1 42800272#2 42800272#3 42800272#4 42800272#5 42800272#6 286359624 267040042#0 267040042#1 286359621#0 286359621#1 286359621#2 286359621#3 286359621#4 286359621#5 286359621#6 286686802#0 286686802#1 83738619#0 83738619#1 286686805#0 286686805#1 286686805#2 286686805#3 286686805#4 286686805#5 286686805#6 366625732 366625733#0 366625733#1 288771275 288771272 288893416#0 288893416#1 288893416#2 288893416#3 42785140#0 42785140#1 42785140#2 42785140#3 42785140#4 1265985004#2 -308255962#2 -308255962#1 -308255962#0 308255961#1 -1392025438 840241108#2 286359697#0 286359697#1 42785141#0 42785141#1 42785141#2 42785141#3 287381342#0 287381342#1 288893412#0 288893412#1 288771275 288771272 288893416#0 288893416#1 288893416#2 288893416#3 42785367#0 42785367#1 366625734#0 366625734#1 42785139#0 42785139#1 42785139#2 286359639 723236930#0 723236930#1 723236930#2 723236930#3 723236930#4 723236930#5 723236930#6 723236930#7 723236930#8 723236930#9 723236930#10 723236930#11 723236930#12 723236930#13 723236930#14 723236930#15 723236930#16 267040060#4 723236930#18 723236930#19 956603102#1 956603102#2 -286359613 -606494165#3 -606494165#2 -606494165#1 -606494165#0 -286359615#4 -286359615#3 -286359615#2 -286359615#1 -286359615#0 -1450101877 -303301712#1 -303301712#0 67036468 286686798 67036475#0 67036475#1 67667647#0 67667647#1 24525923#0 24525923#1 24525923#2 133531006 286686742#0 286686742#1 235442942#0 235442942#1 235442942#2 -235442939#1 -235442939#0 -56964181 -235442941#1 -235442941#0 -235442940 -148824817#1 -148824817#0 -286359565 -1413022414 -1340342315"/>
        <stop busStop="de:08121:31004:1:2" duration="0.00"/>
        <stop busStop="de:08121:31003:1:1" duration="0.00"/>
        <stop busStop="de:08121:31001:1:2" duration="0.00"/>
        <stop busStop="de:08121:31002:1:2" duration="60.00"/>
        <stop busStop="de:08121:24:90:1" duration="60.00"/>
        <stop busStop="de:08121:55:3:1" duration="60.00"/>
        <stop busStop="de:08121:137:2:2" duration="0.00"/>
        <stop busStop="de:08121:1114:3:1" duration="0.00"/>
    </vehicle>
    <vehicle id="hnv-31-641-1-1-3-H-11-Special#297-69-299" type="bus_standard" depart="18120.00">
        <route edges="235442943 295479772 24525959 67667646#0 67667646#1 67667646#2 4225309 286686799#0 286686799#1 -156649615#1 -156649615#0 1450101877 286359615#0 286359615#1 286359615#2 286359615#3 286359615#4 606494165#0 606494165#1 606494165#2 606494165#3 286359616 286359559 286359560#0 286359560#1 286359562#0 286359562#1 286359562#2 632556850#0 632556850#1 210061969 125174595#0 125174595#1 267040036 125174594 262459105"/>
        <stop busStop="de:08121:137:1:1" duration="0.00"/>
        <stop busStop="de:08121:55:1:1" duration="0.00"/>
        <stop busStop="de:08121:81:0:Hp. 2" duration="0.00"/>
    </vehicle>
    <vehicle id="hnv-31-661-1-1-15-R-39-Special#297-48-246" type="bus_standard" depart="18180.00">