<?xml version="1.0" ?>
<additional>
    <busStop id="at:45:50809:0:3" name="Salzburg Alpensiedlung P+R" lat="47.7698673" lon="13.0708467"/>
    <busStop id="at:47:68442:0:1" name="Innsbruck Südbahnstraße Ersatzhaltestelle" lat="47.2584609" lon="11.3997826"/>
    <busStop id="at:49:1349:0:35" name="Wien Hauptbahnhof" lat="48.1851041" lon="16.377114"/>
    <busStop id="at:49:289:0:1" name="Wien Erdberg" lat="48.1904463" lon="16.4154002"/>
    <busStop id="be:26:8812005:10:1" name="Bruxelles-Nord" lat="50.8614481" lon="4.3599642"/>
    <busStop id="be:26:8821121:11:Flix" name="Antwerpen-Berchem" lat="51.2012555" lon="4.4359437"/>
    <busStop id="cz:55100:NVBW_11342:0:1" name="Praha Na Knížecí" lat="50.0690748" lon="14.4046652"/>
    <busStop id="cz:55100:NVBW_11790:0:1" name="Praha Václav Havel Airport" lat="50.1073052" lon="14.2691274"/>
    <busStop id="cz:55100:NVBW_92016:1:Flix" name="Praha Černý Most (M)" lat="50.1088953" lon="14.5774382"/>
    <busStop id="cz:55100:NVBW_92047:1:1" name="Praha Hradcanska (M)" lat="50.0974004" lon="14.4032998"/>
    <busStop id="cz:55100:NVBW_99711:0:1" name="Praha Florenc/Busbahnhof" lat="50.0894416" lon="14.4404451"/>
    <busStop id="cz:55202:NVBW_3:10:1" name="Beroun (CZ)" lat="49.9572119" lon="14.0763669"/>
    <busStop id="cz:55323:nvbw_bus_10372:0:1" name="Plzen Autobusové nádrazí" lat="49.7463647" lon="13.3630866"/>
    <busStop id="cz:55521:nvbw_bus_9946:0:1" name="Hradec Králové Terminál HD" lat="50.2169334" lon="15.812999"/>
    <busStop id="cz:55523_nvbw_bus_10018:0:Flix" name="Náchod autobusové nádraží" lat="50.4174433" lon="16.1703129"/>
    <busStop id="de:02000:10002:1:99" name="Hauptbahnhof/ZOB" lat="53.5521285" lon="10.0099541"/>
    <busStop id="de:03152:5382:32:K" name="Göttingen Bahnhof" lat="51.5367865" lon="9.9262671"/>
    <busStop id="de:03241:42:1:48" name="Hannover Hauptbahnhof/ZOB" lat="52.3788203" lon="9.7411243"/>
    <busStop id="de:05111:18469:0:1" name="D-Worringer Platz,W57" lat="51.2236692" lon="6.7953329"/>
    <busStop id="de:05111:18488:2:1" name="D-Flughafen Bf Bstg 1" lat="51.290654" lon="6.7899609"/>
    <busStop id="de:05112:16032:0:1" name="Duisburg Hbf" lat="51.4304529" lon="6.7745279"/>
    <busStop id="de:05113:9289:10:Flix" name="Essen Hauptbahnhof" lat="51.449732" lon="7.0122131"/>
    <busStop id="de:05114:21300:1:1" name="Krefeld Hauptbahnhof Süd Bstg 1" lat="51.3246459" lon="6.5700983"/>
    <busStop id="de:05124:11602:2:9" name="W-Oberbarmen Bf Bstg 9" lat="51.2750339" lon="7.2242874"/>
    <busStop id="de:05314:64458:2:41" name="Bonn Gronau UN Campus Bf" lat="50.7125682" lon="7.1204422"/>
    <busStop id="de:05315:17556:2:24" name="Köln/Bonn Flughafen Terminal 2" lat="50.8810343" lon="7.1174508"/>
    <busStop id="de:05711:5059:89" name="Bielefeld, Brackwede Bahnhof" lat="51.998023" lon="8.5003083"/>
    <busStop id="de:05911:5194:7:10" name="Bochum Hbf" lat="51.4794102" lon="7.2249162"/>
    <busStop id="de:05913:131:4:12" name="Dortmund Hbf" lat="51.5195622" lon="7.4594214"/>
    <busStop id="de:05970:40251:1:1" name="Siegen Koblenzer Straße" lat="50.8721634" lon="8.0169249"/>
    <busStop id="de:06411:4734:41:5" name="Darmstadt Hauptbahnhof" lat="49.8730424" lon="8.6298454"/>
    <busStop id="de:06412:113:1:1" name="Frankfurt (Main) Pforzheimer Straße" lat="50.1044532" lon="8.6632358"/>
    <busStop id="de:06412:2931:2:2" name="Frankfurt (Main) Flughafen Tor 3" lat="50.0527602" lon="8.5791894"/>
    <busStop id="de:06531:14519:0:1" name="Gießen Mathematikum" lat="50.5808204" lon="8.6669278"/>
    <busStop id="de:07211:1318:11:FB2" name="Trier, Hauptbahnhof" lat="49.7582512" lon="6.6530757"/>
    <busStop id="de:07312:9035:2:D3" name="Kaiserslautern, Hbf Bstg D3" lat="49.4365613" lon="7.7675436"/>
    <busStop id="de:07314:2019:1:1" name="Ludwigshafen, Mitte" lat="49.478965" lon="8.4520329"/>
    <busStop id="de:07314:2019:4:2" name="Ludwigshafen, Mitte" lat="49.47893" lon="8.4520868"/>
    <busStop id="de:07314:2019:4:3" name="Ludwigshafen, Mitte" lat="49.4788541" lon="8.4521586"/>
    <busStop id="de:07314:2080:9:3" name="Ludwigshafen, Hauptbahnhof" lat="49.4752178" lon="8.4323328"/>
    <busStop id="de:07314:2080:9:4" name="Ludwigshafen, Hauptbahnhof" lat="49.475247" lon="8.432207"/>
    <busStop id="de:08111:6085:1:3" name="Untertürkheim Gleis 3" lat="48.7797921" lon="9.2505363"/>
    <busStop id="de:08111:6115:1:1" name="Stuttgart Hauptbahnhof (oben) Gleis 1" lat="48.7847465" lon="9.1832166"/>
    <busStop id="de:08111:6115:1:2" name="Stuttgart Hauptbahnhof (oben) Gleis 2" lat="48.7847465" lon="9.1832166"/>
    <busStop id="de:08111:6115:2:3" name="Stuttgart Hauptbahnhof (oben) Gleis 3" lat="48.7847465" lon="9.1832166"/>
    <busStop id="de:08111:6115:2:4" name="Stuttgart Hauptbahnhof (oben) Gleis 4" lat="48.7847465" lon="9.1832166"/>
    <busStop id="de:08111:6115:3:5" name="Stuttgart Hauptbahnhof (oben) Gleis 5" lat="48.7847465" lon="9.1832166"/>
    <busStop id="de:08111:6115:3:6" name="Stuttgart Hauptbahnhof (oben) Gleis 6" lat="48.7847465" lon="9.1832166"/>
    <busStop id="de:08111:6115:4:7" name="Stuttgart Hauptbahnhof (oben) Gleis 7" lat="48.7847465" lon="9.1832166"/>
    <busStop id="de:08111:6115:4:8" name="Stuttgart Hauptbahnhof (oben) Gleis 8" lat="48.7847465" lon="9.1832166"/>
    <busStop id="de:08111:6115:5:10" name="Stuttgart Hauptbahnhof (oben) Gleis 10" lat="48.7847465" lon="9.1832166"/>
    <busStop id="de:08111:6115:5:9" name="Stuttgart Hauptbahnhof (oben) Gleis 9" lat="48.7847465" lon="9.1832166"/>
    <busStop id="de:08111:6115:6:11" name="Stuttgart Hauptbahnhof (oben) Gleis 11" lat="48.7847465" lon="9.1832166"/>
    <busStop id="de:08111:6115:6:12" name="Stuttgart Hauptbahnhof (oben) Gleis 12" lat="48.7847465" lon="9.1832166"/>
    <busStop id="de:08111:6115:7:13" name="Stuttgart Hauptbahnhof (oben) Gleis 13" lat="48.7847465" lon="9.1832166"/>
    <busStop id="de:08111:6115:7:14" name="Stuttgart Hauptbahnhof (oben) Gleis 14" lat="48.7847465" lon="9.1832166"/>
    <busStop id="de:08111:6115:8:15" name="Stuttgart Hauptbahnhof (oben) Gleis 15" lat="48.7847465" lon="9.1832166"/>
    <busStop id="de:08111:6115:8:16" name="Stuttgart Hauptbahnhof (oben) Gleis 16" lat="48.7847465" lon="9.1832166"/>
    <busStop id="de:08111:6115_Parent" name="Stuttgart Hauptbahnhof (oben)" lat="48.7848767" lon="9.1827944"/>
    <busStop id="de:08111:6333:2:1" name="Bad Cannstatt Gleis 1" lat="48.8015415" lon="9.2175771"/>
    <busStop id="de:08111:6333:5:4" name="Bad Cannstatt Gleis 4" lat="48.8013404" lon="9.2175053"/>
    <busStop id="de:08111:6333:5:5" name="Bad Cannstatt Gleis 5" lat="48.801228" lon="9.2174424"/>
    <busStop id="de:08111:6333:7:8" name="Bad Cannstatt Gleis 8" lat="48.8009913" lon="9.2173436"/>
    <busStop id="de:08111:6333_Parent" name="Bad Cannstatt" lat="48.8012812" lon="9.2174693"/>
    <busStop id="de:08111:6465:7:1" name="Zuffenhausen Bstg 1" lat="48.8294025" lon="9.16861"/>
    <busStop id="de:08115:4510:1:2" name="Bondorf Gleis 2" lat="48.5232875" lon="8.827852"/>
    <busStop id="de:08115:4512:4:101" name="Herrenberg Gleis 101" lat="48.5934333" lon="8.8615928"/>
    <busStop id="de:08115:5776:1:2" name="Gäufelden Gleis 3" lat="48.5597043" lon="8.8501572"/>
    <busStop id="de:08115:7301:3:2" name="Leonberg Bstg 2" lat="48.7999203" lon="9.0050088"/>
    <busStop id="de:08116:2103:3:1" name="Flughafen/Messe Bstg 1" lat="48.6916447" lon="9.1966913"/>
    <busStop id="de:08116:2931:1:1" name="Nürtingen Gleis 1" lat="48.6281372" lon="9.3426765"/>
    <busStop id="de:08116:2931:2:2" name="Nürtingen Gleis 2" lat="48.628149" lon="9.3427484"/>
    <busStop id="de:08116:4211:5:11" name="Kirchheim (T) Bstg 11" lat="48.6447649" lon="9.4436921"/>
    <busStop id="de:08116:4241:1:2" name="Wernau (N) Gleis 2" lat="48.6941885" lon="9.4136255"/>
    <busStop id="de:08116:4257:1:1" name="Wendlingen (N) Gleis 1" lat="48.6737273" lon="9.3737133"/>
    <busStop id="de:08116:4257:2:2" name="Wendlingen (N) Gleis 2" lat="48.6736146" lon="9.3735965"/>
    <busStop id="de:08116:4257:2:3" name="Wendlingen (N) Gleis 3" lat="48.6736799" lon="9.3734618"/>
    <busStop id="de:08116:5770:1:1" name="Oberboihingen Gleis 1" lat="48.6483617" lon="9.3643978"/>
    <busStop id="de:08116:5770:2:2" name="Oberboihingen Gleis 2" lat="48.6480827" lon="9.364272"/>
    <busStop id="de:08116:5772:1:2" name="Bempflingen Gleis 2" lat="48.5723546" lon="9.2734883"/>
    <busStop id="de:08116:5772:2:1" name="Bempflingen Gleis 1" lat="48.5720693" lon="9.2734254"/>
    <busStop id="de:08116:7800:1:7" name="Esslingen (N) Gleis 7" lat="48.7384275" lon="9.3005186"/>
    <busStop id="de:08116:7800:1:8" name="Esslingen (N) Gleis 8" lat="48.7383327" lon="9.3004647"/>
    <busStop id="de:08116:7800:2:2" name="Esslingen (N) Gleis 2" lat="48.7387474" lon="9.3007252"/>
    <busStop id="de:08116:7800:2:3" name="Esslingen (N) Gleis 3" lat="48.7386467" lon="9.3006623"/>
    <busStop id="de:08116:7800:2:5" name="Esslingen (N) Gleis 5" lat="48.7385696" lon="9.3006174"/>
    <busStop id="de:08116:7800:2:6" name="Esslingen (N) Gleis 6" lat="48.738463" lon="9.3005545"/>
    <busStop id="de:08116:7800_Parent" name="Esslingen (N)" lat="48.73854" lon="9.3005815"/>
    <busStop id="de:08116:7802:1:10" name="Plochingen Gleis 10" lat="48.7127447" lon="9.4107868"/>
    <busStop id="de:08116:7802:1:7" name="Plochingen Gleis 7" lat="48.7128395" lon="9.4110743"/>
    <busStop id="de:08116:7802:1:9" name="Plochingen Gleis 9" lat="48.7128217" lon="9.4109575"/>
    <busStop id="de:08116:7802:2:1" name="Plochingen Gleis 1" lat="48.7130825" lon="9.4116941"/>
    <busStop id="de:08116:7802:2:3" name="Plochingen Gleis 3" lat="48.7130529" lon="9.4115773"/>
    <busStop id="de:08116:7802:2:6" name="Plochingen Gleis 6" lat="48.7129225" lon="9.4112539"/>
    <busStop id="de:08116:7802_Parent" name="Plochingen" lat="48.7129403" lon="9.4112988"/>
    <busStop id="de:08118:1400:1:8" name="Bietigheim Gleis 8" lat="48.9478307" lon="9.1372947"/>
    <busStop id="de:08118:1400:2:3" name="Bietigheim Gleis 3" lat="48.9481729" lon="9.1370162"/>
    <busStop id="de:08118:1400:2:4" name="Bietigheim Gleis 4" lat="48.9480962" lon="9.1370971"/>
    <busStop id="de:08118:1400:4:10" name="Bietigheim Gleis 10" lat="48.9477245" lon="9.1374115"/>
    <busStop id="de:08118:1400:4:9" name="Bietigheim Gleis 9" lat="48.9478071" lon="9.1373306"/>
    <busStop id="de:08118:1400:6:11" name="Bietigheim ZOB Bstg 11" lat="48.9493823" lon="9.1364144"/>
    <busStop id="de:08118:1400:6:8" name="Bietigheim ZOB Bstg 8" lat="48.9491345" lon="9.1365222"/>
    <busStop id="de:08118:1400:6:9" name="Bietigheim ZOB Bstg 9" lat="48.9492466" lon="9.1364323"/>
    <busStop id="de:08118:1400_Parent" name="Bietigheim" lat="48.9479487" lon="9.1372139"/>
    <busStop id="de:08118:1402:8:11" name="Kornwestheim" lat="48.862437" lon="9.1793179"/>
    <busStop id="de:08118:3338:0:3" name="Oberstenfeld Schule" lat="49.0262756" lon="9.3178022"/>
    <busStop id="de:08118:3346:0:3" name="Spielberg Brunnenwiesen" lat="49.0159782" lon="9.000095"/>
    <busStop id="de:08118:3346:0:4" name="Spielberg Brunnenwiesen" lat="49.0159782" lon="9.000095"/>
    <busStop id="de:08118:3401:0:3" name="Bietigheim Poststräßle" lat="48.9566794" lon="9.1466372"/>
    <busStop id="de:08118:3401:0:4" name="Bietigheim Poststräßle" lat="48.9566794" lon="9.1466372"/>
    <busStop id="de:08118:3470:1:3" name="Pleidelsh. Wiegeh./Riedb.str." lat="48.9611032" lon="9.2046863"/>
    <busStop id="de:08118:3485:0:1" name="Großingersheim Fischerwörth" lat="48.9605546" lon="9.188867"/>
    <busStop id="de:08118:3485:0:2" name="Großingersheim Fischerwörth" lat="48.9604544" lon="9.1889119"/>
    <busStop id="de:08118:3503:0:3" name="Hohenhasl. Brombergerhöfe" lat="49.0091965" lon="9.0015683"/>
    <busStop id="de:08118:3503:0:4" name="Hohenhasl. Brombergerhöfe" lat="49.0091965" lon="9.0015683"/>
    <busStop id="de:08118:3504:0:3" name="Steinheim (M) Wellarium" lat="48.9735348" lon="9.2680984"/>
    <busStop id="de:08118:3504:0:4" name="Steinheim (M) Wellarium" lat="48.9729864" lon="9.2685386"/>
    <busStop id="de:08118:3533:1:3" name="Marbach (N) Krankenhaus" lat="48.9417124" lon="9.2599147"/>
    <busStop id="de:08118:3533:1:4" name="Marbach (N) Krankenhaus" lat="48.9417124" lon="9.2599147"/>
    <busStop id="de:08118:3537:0:3" name="Marbach (N) König-Wilhelm-Pl." lat="48.9380363" lon="9.2585493"/>
    <busStop id="de:08118:3537:0:4" name="Marbach (N) König-Wilhelm-Pl." lat="48.9387916" lon="9.2590703"/>
    <busStop id="de:08118:3549:0:4" name="Marbach (N) Stadionhalle" lat="48.9341535" lon="9.2631846"/>
    <busStop id="de:08118:3553:0:3" name="Großbottwar Schulzentrum" lat="48.9985773" lon="9.2880679"/>
    <busStop id="de:08118:3567:0:3" name="Hohenhaslach Allmandklinge" lat="49.0012883" lon="9.0143782"/>
    <busStop id="de:08118:3567:0:4" name="Hohenhaslach Allmandklinge" lat="49.0012883" lon="9.0143782"/>
    <busStop id="de:08118:3582:0:3" name="Pleidelsheim Am Friedhof" lat="48.9594399" lon="9.2003475"/>
    <busStop id="de:08118:3582:0:4" name="Pleidelsheim Am Friedhof" lat="48.9594399" lon="9.2003475"/>
    <busStop id="de:08118:5566:1:4" name="Großingersh. Bietigheimer Str." lat="48.9589621" lon="9.1786621"/>
    <busStop id="de:08118:5566:2:3" name="Großingersh. Bietigheimer Str." lat="48.9589621" lon="9.1786621"/>
    <busStop id="de:08118:5570:1:3" name="Pleidelsheim Hauptstraße" lat="48.9591745" lon="9.2039407"/>
    <busStop id="de:08118:5570:1:4" name="Pleidelsheim Hauptstraße" lat="48.9591745" lon="9.2039407"/>
    <busStop id="de:08118:5583:1:1" name="Besigheim Gleis 1" lat="48.9976696" lon="9.13663"/>
    <busStop id="de:08118:5583:2:2" name="Besigheim Gleis 2" lat="48.9976343" lon="9.1364952"/>
    <busStop id="de:08118:5593:0:3" name="Oberstenfeld Beilsteiner Str." lat="49.0261401" lon="9.3194551"/>
    <busStop id="de:08118:5593:0:4" name="Oberstenfeld Beilsteiner Str." lat="49.0261401" lon="9.3194551"/>
    <busStop id="de:08118:5594:0:3" name="Oberstenf. Lichtenberger Str." lat="49.0238723" lon="9.3237939"/>
    <busStop id="de:08118:5594:0:4" name="Oberstenf. Lichtenberger Str." lat="49.0238723" lon="9.3237939"/>
    <busStop id="de:08118:5596:0:3" name="Gronau Prev. Feuerwehr" lat="49.0503555" lon="9.3952819"/>
    <busStop id="de:08118:5597:0:3" name="Murr Blattert" lat="48.9577824" lon="9.2521084"/>
    <busStop id="de:08118:5597:0:4" name="Murr Blattert" lat="48.9582189" lon="9.2521803"/>
    <busStop id="de:08118:5598:0:3" name="Murr Ortsmitte" lat="48.9622887" lon="9.2597081"/>
    <busStop id="de:08118:5598:0:4" name="Murr Ortsmitte" lat="48.9619997" lon="9.259232"/>
    <busStop id="de:08118:5599:0:4" name="Steinh.(M) Höpfigheimer Str." lat="48.9684045" lon="9.2750783"/>
    <busStop id="de:08118:5600:0:3" name="Murr Hardtlinde" lat="48.9644768" lon="9.2620617"/>
    <busStop id="de:08118:5600:0:4" name="Murr Hardtlinde" lat="48.9644768" lon="9.2620617"/>
    <busStop id="de:08118:5601:0:3" name="Steinheim (M) Murrer Str." lat="48.9667591" lon="9.27047"/>
    <busStop id="de:08118:5601:0:4" name="Steinheim (M) Murrer Str." lat="48.9667591" lon="9.27047"/>
    <busStop id="de:08118:5602:0:3" name="Steinheim (M) Bf Pos 3" lat="48.9674786" lon="9.2767851"/>
    <busStop id="de:08118:5602:0:4" name="Steinheim (M) Bf Pos 4" lat="48.9673842" lon="9.2750783"/>
    <busStop id="de:08118:5603:0:3" name="Steinheim (M) Kelter" lat="48.966883" lon="9.2796507"/>
    <busStop id="de:08118:5603:0:4" name="Steinheim (M) Kelter" lat="48.966883" lon="9.2796507"/>
    <busStop id="de:08118:5604:1:3" name="Kleinbottwar" lat="48.980451" lon="9.2869091"/>
    <busStop id="de:08118:5604:1:4" name="Kleinbottwar" lat="48.9804097" lon="9.2860378"/>
    <busStop id="de:08118:5605:0:3" name="Großbottwar Waldstraße" lat="48.9972689" lon="9.2896759"/>
    <busStop id="de:08118:5605:0:4" name="Großbottwar Waldstraße" lat="48.9972689" lon="9.2896759"/>
    <busStop id="de:08118:5606:0:3" name="Großbottwar Bachstraße" lat="49.0007343" lon="9.2916612"/>
    <busStop id="de:08118:5606:0:4" name="Großbottwar Bachstraße" lat="49.0007343" lon="9.2916612"/>
    <busStop id="de:08118:5607:0:3" name="Winzerhausen Raiffeisenstr." lat="49.0234482" lon="9.2649273"/>
    <busStop id="de:08118:5608:1:3" name="Großbottwar Rosenplatz" lat="48.9999446" lon="9.2939339"/>
    <busStop id="de:08118:5608:1:4" name="Großbottwar Rosenplatz" lat="48.9999446" lon="9.2939339"/>
    <busStop id="de:08118:5609:0:3" name="Großbottwar Kelter" lat="49.0035631" lon="9.2989196"/>
    <busStop id="de:08118:5609:0:4" name="Großbottwar Kelter" lat="49.0035631" lon="9.2989196"/>
    <busStop id="de:08118:5610:0:3" name="Großbottwar Sauserhof" lat="49.0123488" lon="9.3088729"/>
    <busStop id="de:08118:5610:0:4" name="Großbottwar Sauserhof" lat="49.0127436" lon="9.3096095"/>
    <busStop id="de:08118:5611:0:3" name="Oberstenfeld Nussbaumweg" lat="49.020597" lon="9.316275"/>
    <busStop id="de:08118:5611:0:4" name="Oberstenfeld Nussbaumweg" lat="49.0200079" lon="9.3160415"/>
    <busStop id="de:08118:5612:0:3" name="Oberstenfeld Rathaus" lat="49.0240843" lon="9.3195539"/>
    <busStop id="de:08118:5612:0:4" name="Oberstenfeld Rathaus" lat="49.0240843" lon="9.3195539"/>
    <busStop id="de:08118:5613:0:3" name="Oberstenf. Kath. Kirche" lat="49.0289439" lon="9.3177393"/>
    <busStop id="de:08118:5613:0:4" name="Oberstenf. Kath. Kirche" lat="49.0284314" lon="9.3180178"/>
    <busStop id="de:08118:5614:0:3" name="Oberstenfeld Kreuzstr." lat="49.0265642" lon="9.3291928"/>
    <busStop id="de:08118:5614:0:4" name="Oberstenfeld Kreuzstr." lat="49.0265642" lon="9.3291928"/>
    <busStop id="de:08118:5615:0:3" name="Gronau Schule" lat="49.0325131" lon="9.3369992"/>
    <busStop id="de:08118:5615:0:4" name="Gronau Schule" lat="49.0331433" lon="9.3367746"/>
    <busStop id="de:08118:5616:0:3" name="Bietigheim Kreisberufsschule" lat="48.9520842" lon="9.1222389"/>
    <busStop id="de:08118:5617:0:3" name="Bietigheim DLW" lat="48.9533761" lon="9.135004"/>
    <busStop id="de:08118:5617:0:4" name="Bietigheim DLW" lat="48.953907" lon="9.1348603"/>
    <busStop id="de:08118:5619:0:4" name="Großb. Aussiedlerhöfe" lat="49.0055843" lon="9.2822828"/>
    <busStop id="de:08118:5620:0:3" name="Winzerh. Holzweilerhof" lat="49.0120071" lon="9.2501051"/>
    <busStop id="de:08118:5647:1:2" name="Bietigheim Ellentalgymnasien Pos 2" lat="48.9544202" lon="9.1245117"/>
    <busStop id="de:08118:5648:0:3" name="Bietigheim Auwiesenbrücke" lat="48.9574934" lon="9.1322282"/>
    <busStop id="de:08118:5648:0:4" name="Bietigheim Auwiesenbrücke" lat="48.9569743" lon="9.1319587"/>
    <busStop id="de:08118:5660:0:3" name="Bietigheim Löchgauer Str." lat="48.9621117" lon="9.1234607"/>
    <busStop id="de:08118:5660:0:4" name="Bietigheim Löchgauer Str." lat="48.9623889" lon="9.1223827"/>
    <busStop id="de:08118:5690:0:3" name="Bietigh. Antonia-Visconti-Str." lat="48.963598" lon="9.1199482"/>
    <busStop id="de:08118:5690:0:4" name="Bietigh. Antonia-Visconti-Str." lat="48.963598" lon="9.1199482"/>
    <busStop id="de:08118:5692:0:3" name="Bietigheim Waldhof" lat="48.9763297" lon="9.100347"/>
    <busStop id="de:08118:5692:0:4" name="Bietigheim Waldhof" lat="48.9763297" lon="9.100347"/>
    <busStop id="de:08118:5693:0:3" name="Löchgau Weißenhof Ost" lat="48.9845425" lon="9.1000775"/>
    <busStop id="de:08118:5693:0:4" name="Löchgau Weißenhof Ost" lat="48.9845425" lon="9.1000775"/>
    <busStop id="de:08118:5694:0:3" name="Bietigheim Enzbrücke" lat="48.95862" lon="9.1326594"/>
    <busStop id="de:08118:5695:0:3" name="Erligheim" lat="49.0191006" lon="9.0984066"/>
    <busStop id="de:08118:5695:0:4" name="Erligheim" lat="49.0191006" lon="9.0984066"/>
    <busStop id="de:08118:5698:0:3" name="Bönnigheim Am Schloss" lat="49.0400277" lon="9.0928551"/>
    <busStop id="de:08118:5698:0:4" name="Bönnigheim Am Schloss" lat="49.0400277" lon="9.0928551"/>
    <busStop id="de:08118:5700:1:3" name="Bönnigheim Burgplatz" lat="49.0419827" lon="9.090735"/>
    <busStop id="de:08118:5700:1:4" name="Bönnigheim Burgplatz" lat="49.0419827" lon="9.090735"/>
    <busStop id="de:08118:5704:0:3" name="Löchgau Wette" lat="49.001854" lon="9.105683"/>
    <busStop id="de:08118:5704:0:4" name="Löchgau Wette" lat="49.001854" lon="9.105683"/>
    <busStop id="de:08118:5706:0:3" name="Freudental Besigh. Str." lat="49.0101511" lon="9.0634622"/>
    <busStop id="de:08118:5707:1:3" name="Freudental Post" lat="49.0085955" lon="9.059815"/>
    <busStop id="de:08118:5707:1:4" name="Freudental Post" lat="49.0085955" lon="9.059815"/>
    <busStop id="de:08118:5708:0:3" name="Freudental Gewerbegebiet" lat="49.0061677" lon="9.0562038"/>
    <busStop id="de:08118:5708:0:4" name="Freudental Gewerbegebiet" lat="49.0061677" lon="9.0562038"/>
    <busStop id="de:08118:5709:0:3" name="Hohenhaslach Staffel" lat="48.9980233" lon="9.0264246"/>
    <busStop id="de:08118:5709:0:4" name="Hohenhaslach Staffel" lat="48.9980233" lon="9.0264246"/>
    <busStop id="de:08118:5710:1:3" name="Hohenhaslach Steige" lat="48.999809" lon="9.0189686"/>
    <busStop id="de:08118:5710:1:4" name="Hohenhaslach Steige" lat="49.0000035" lon="9.0186812"/>
    <busStop id="de:08118:5711:0:3" name="Spielberg Ochsen" lat="49.017127" lon="8.9970048"/>
    <busStop id="de:08118:5711:0:4" name="Spielberg Ochsen" lat="49.017127" lon="8.9970048"/>
    <busStop id="de:08118:5712:0:3" name="Ochsenbach Kirche" lat="49.0208562" lon="8.9828833"/>
    <busStop id="de:08118:5712:0:4" name="Ochsenbach Kirche" lat="49.0208562" lon="8.9828833"/>
    <busStop id="de:08118:5713:0:3" name="Ochsenbach Kirbachhof" lat="49.0182169" lon="8.9593295"/>
    <busStop id="de:08118:5713:0:4" name="Ochsenbach Kirbachhof" lat="49.0184231" lon="8.9605691"/>
    <busStop id="de:08118:5714:1:3" name="Häfnerhasl. Dorfbrunnen" lat="49.0252919" lon="8.9186178"/>
    <busStop id="de:08118:5723:1:1" name="Kirchheim (N) Gleis 1" lat="49.0376486" lon="9.1508413"/>
    <busStop id="de:08118:5723:1:2" name="Kirchheim (N) Gleis 2" lat="49.0376368" lon="9.1507605"/>
    <busStop id="de:08118:5723:2:3" name="Kirchheim (N) Bf" lat="49.0378783" lon="9.150473"/>
    <busStop id="de:08118:5723:2:4" name="Kirchheim (N) Bf" lat="49.0370597" lon="9.1503203"/>
    <busStop id="de:08118:5723_Parent" name="Kirchheim (N)" lat="49.0376368" lon="9.1508862"/>
    <busStop id="de:08118:5727:0:4" name="Bönnigheim Schulzentrum" lat="49.0408404" lon="9.0975353"/>
    <busStop id="de:08118:5728:0:3" name="Bönnigheim Sonnenberg" lat="49.0410641" lon="9.0654475"/>
    <busStop id="de:08118:5728:0:4" name="Bönnigheim Sonnenberg" lat="49.040964" lon="9.0655193"/>
    <busStop id="de:08118:5729:0:3" name="Bönnigheim Freibad" lat="49.0414057" lon="9.0818866"/>
    <busStop id="de:08118:5729:0:4" name="Bönnigheim Freibad" lat="49.0414057" lon="9.0818866"/>
    <busStop id="de:08118:5735:0:3" name="Häfnerhasl. Alte Mühle" lat="49.0188473" lon="8.9359194"/>
    <busStop id="de:08118:5785:1:1" name="Walheim Gleis 1" lat="49.0109406" lon="9.1519462"/>
    <busStop id="de:08118:5785:1:2" name="Walheim Gleis 2" lat="49.0109465" lon="9.1519103"/>
    <busStop id="de:08118:5883:0:3" name="Ochsenbach Buchenrain" lat="49.0221404" lon="8.9780414"/>
    <busStop id="de:08118:5883:0:4" name="Ochsenbach Buchenrain" lat="49.0220285" lon="8.9789666"/>
    <busStop id="de:08118:5922:0:3" name="Steinh.(M) Kleinbottwarer Str." lat="48.9693834" lon="9.2824445"/>
    <busStop id="de:08118:5922:0:4" name="Steinh.(M) Kleinbottwarer Str." lat="48.9693834" lon="9.2824445"/>
    <busStop id="de:08118:5934:0:3" name="Großingersheim Ortsmitte" lat="48.96013" lon="9.1839532"/>
    <busStop id="de:08118:5934:0:4" name="Großingersheim Ortsmitte" lat="48.9608437" lon="9.1842317"/>
    <busStop id="de:08118:6798:0:3" name="Gronau Prevorst Löwen" lat="49.0503202" lon="9.3977163"/>
    <busStop id="de:08118:6798:0:4" name="Gronau Prevorst Löwen" lat="49.0503202" lon="9.3977163"/>
    <busStop id="de:08118:6971:0:3" name="Großbottwar Flickenwiesen" lat="49.0071754" lon="9.3016774"/>
    <busStop id="de:08118:6971:0:4" name="Großbottwar Flickenwiesen" lat="49.0071754" lon="9.3016774"/>
    <busStop id="de:08118:6986:1:3" name="Kleinbottwar Seestraße" lat="48.9801209" lon="9.2857772"/>
    <busStop id="de:08118:6986:1:4" name="Kleinbottwar Seestraße" lat="48.9801209" lon="9.2857772"/>
    <busStop id="de:08118:6987:0:3" name="Steinheim (M) Horrenwinkel" lat="48.9728331" lon="9.2807018"/>
    <busStop id="de:08118:6987:0:4" name="Steinheim (M) Horrenwinkel" lat="48.9728331" lon="9.2807018"/>
    <busStop id="de:08118:6988:0:3" name="Steinheim (M) Schulzentrum" lat="48.9726267" lon="9.2726618"/>
    <busStop id="de:08118:6988:0:4" name="Steinheim (M) Schulzentrum" lat="48.9726267" lon="9.2726618"/>
    <busStop id="de:08118:6999:0:3" name="Murr Bietigheimer Str." lat="48.9580066" lon="9.2508777"/>
    <busStop id="de:08118:7400:1:4" name="Asperg Gleis 4" lat="48.9072896" lon="9.1480026"/>
    <busStop id="de:08118:7402:1:2" name="Ludwigsburg Gleis 2" lat="48.8921483" lon="9.1854085"/>
    <busStop id="de:08118:7402:1:3" name="Ludwigsburg Gleis 3" lat="48.8921011" lon="9.1852468"/>
    <busStop id="de:08118:7402:2:4" name="Ludwigsburg Gleis 4" lat="48.8920833" lon="9.1852019"/>
    <busStop id="de:08118:7402:2:5" name="Ludwigsburg Gleis 5" lat="48.8920302" lon="9.1850671"/>
    <busStop id="de:08118:7402:3:1" name="Ludwigsburg Gleis 1" lat="48.892166" lon="9.1854624"/>
    <busStop id="de:08118:7402_Parent" name="Ludwigsburg" lat="48.8920833" lon="9.1852288"/>
    <busStop id="de:08118:7404:1:3" name="Tamm Gleis 3" lat="48.9219304" lon="9.1253471"/>
    <busStop id="de:08118:7446:0:4" name="Bietigheim Karl-Mai-Allee" lat="48.9615396" lon="9.1261287"/>
    <busStop id="de:08118:7503:3:1" name="Marbach (N) Bf Bstg 1" lat="48.9434884" lon="9.2649812"/>
    <busStop id="de:08118:7503:3:2" name="Marbach (N) Bf Bstg 2" lat="48.9435828" lon="9.2653585"/>
    <busStop id="de:08118:7503:4:5" name="Marbach (N) Bf Bstg 5" lat="48.9433468" lon="9.2648645"/>
    <busStop id="de:08118:7658:0:1" name="Freudental Alleenfeld" lat="49.0060911" lon="9.0645851"/>
    <busStop id="de:08118:7658:0:2" name="Freudental Alleenfeld" lat="49.0061854" lon="9.0644413"/>
    <busStop id="de:08118:nvbw_bus_11198:0:1" name="Kornwestheim Pre Waypoint" lat="48.8511245" lon="9.1671367"/>
    <busStop id="de:08118:nvbw_bus_11199:0:1" name="Kornwestheim Post Waypoint 2" lat="48.8550671" lon="9.1607318"/>
    <busStop id="de:08118:nvbw_bus_11666:0:1" name="Kornwestheim Post Waypoint 1" lat="48.8652618" lon="9.1798659"/>
    <busStop id="de:08119:3730:0:3" name="Vorderbüchelberg" lat="49.0651898" lon="9.4563494"/>
    <busStop id="de:08119:3730:0:4" name="Vorderbüchelberg" lat="49.0651898" lon="9.4564841"/>
    <busStop id="de:08119:4904:0:3" name="Sulzb.(M) Schloss Lautereck" lat="49.0034334" lon="9.4974652"/>
    <busStop id="de:08119:4904:0:4" name="Sulzb.(M) Schloss Lautereck" lat="49.0035159" lon="9.4974652"/>
    <busStop id="de:08119:4905:1:5" name="Sulzbach (M) Marktplatz" lat="49.0025377" lon="9.5011034"/>
    <busStop id="de:08119:4905:1:6" name="Sulzbach (M) Marktplatz" lat="49.0023255" lon="9.5012651"/>
    <busStop id="de:08119:4952:2:3" name="Sulzbach (M) Bf" lat="49.0000566" lon="9.5006543"/>
    <busStop id="de:08119:4953:0:3" name="Sulzbach (M) Lautertal" lat="49.0052013" lon="9.4932072"/>
    <busStop id="de:08119:4953:0:4" name="Sulzbach (M) Lautertal" lat="49.0052013" lon="9.4932072"/>
    <busStop id="de:08119:4954:0:3" name="Spiegelberg Dauernberg Abzw." lat="49.0276657" lon="9.4508427"/>
    <busStop id="de:08119:4954:0:4" name="Spiegelberg Dauernberg Abzw." lat="49.0276657" lon="9.4508427"/>
    <busStop id="de:08119:4955:0:3" name="Siebersbach" lat="49.0174805" lon="9.4677041"/>
    <busStop id="de:08119:4955:0:4" name="Siebersbach" lat="49.017127" lon="9.4688898"/>
    <busStop id="de:08119:4956:0:3" name="Bernhalden" lat="49.0218223" lon="9.457059"/>
    <busStop id="de:08119:4956:0:4" name="Bernhalden" lat="49.0211331" lon="9.4580112"/>
    <busStop id="de:08119:4956:0:5" name="Bernhalden" lat="49.0212803" lon="9.4571489"/>
    <busStop id="de:08119:4957:0:3" name="Dauernberg" lat="49.0306932" lon="9.4596821"/>
    <busStop id="de:08119:4958:0:3" name="Spiegelberg Sulzbacher Str." lat="49.0362647" lon="9.4468901"/>
    <busStop id="de:08119:4958:0:4" name="Spiegelberg Sulzbacher Str." lat="49.0368065" lon="9.4463601"/>
    <busStop id="de:08119:4959:0:3" name="Spiegelberg Löwensteiner Str." lat="49.0387675" lon="9.4467104"/>
    <busStop id="de:08119:4959:0:4" name="Spiegelberg Löwensteiner Str." lat="49.0387675" lon="9.4467104"/>
    <busStop id="de:08119:4960:0:3" name="Gieshof" lat="49.0477414" lon="9.4435753"/>
    <busStop id="de:08119:4960:0:4" name="Gieshof" lat="49.0477414" lon="9.4435753"/>
    <busStop id="de:08119:4961:0:3" name="Spiegelb. Großhöchberger Str." lat="49.0378842" lon="9.4468631"/>
    <busStop id="de:08119:5042:0:3" name="Lautern" lat="49.0079355" lon="9.4858949"/>
    <busStop id="de:08119:5042:0:4" name="Lautern" lat="49.0076173" lon="9.486955"/>
    <busStop id="de:08119:5044:0:3" name="Spiegelberg Schule" lat="49.0367476" lon="9.450133"/>
    <busStop id="de:08119:5045:0:3" name="Großhöchberg" lat="49.0495548" lon="9.4696624"/>
    <busStop id="de:08119:5046:0:3" name="Jux" lat="49.0304281" lon="9.4385358"/>
    <busStop id="de:08119:5046:0:4" name="Jux" lat="49.0304281" lon="9.4385358"/>
    <busStop id="de:08119:5047:0:3" name="Hüttlen" lat="49.0366416" lon="9.435733"/>
    <busStop id="de:08119:5047:0:4" name="Hüttlen" lat="49.0366416" lon="9.435733"/>
    <busStop id="de:08119:5048:0:3" name="Nassach" lat="49.0300748" lon="9.4090351"/>
    <busStop id="de:08119:5048:0:4" name="Nassach" lat="49.0300748" lon="9.4090351"/>
    <busStop id="de:08119:7449:0:3" name="Parkplatz Zollstock" lat="49.0369007" lon="9.4268577"/>